Version 4
SHEET 1 880 680
WIRE 48 80 0 80
WIRE 176 96 176 80
WIRE 336 96 304 96
WIRE 48 112 0 112
WIRE 176 112 176 96
WIRE 336 128 336 96
WIRE 496 144 464 144
WIRE 48 208 0 208
WIRE 176 224 176 208
WIRE 336 224 336 160
WIRE 336 224 304 224
WIRE 48 240 0 240
WIRE 176 240 176 224
FLAG 0 80 A
IOPIN 0 80 In
FLAG 0 112 B
IOPIN 0 112 In
FLAG 0 208 C
IOPIN 0 208 In
FLAG 0 240 D
IOPIN 0 240 In
FLAG 496 144 Y
IOPIN 496 144 Out
FLAG 384 96 VDD
FLAG 224 48 VDD
FLAG 224 176 VDD
FLAG 96 48 VDD
FLAG 96 176 VDD
SYMBOL nand 96 96 R0
SYMATTR InstName X1
SYMBOL nand 96 224 R0
SYMATTR InstName X2
SYMBOL nand 224 96 R0
SYMATTR InstName X3
SYMBOL nand 224 224 R0
SYMATTR InstName X4
SYMBOL nand 384 144 R0
SYMATTR InstName X5
