Version 4
SHEET 1 880 764
WIRE -1280 16 -1328 16
WIRE -1280 32 -1328 32
WIRE -1280 48 -1328 48
WIRE -1280 64 -1328 64
WIRE -1120 80 -1184 80
WIRE -1280 96 -1328 96
WIRE -1120 96 -1184 96
WIRE -1280 112 -1328 112
WIRE -1120 112 -1184 112
WIRE -1280 128 -1328 128
WIRE -1280 144 -1328 144
WIRE -1280 176 -1328 176
WIRE -1280 192 -1328 192
WIRE -1280 208 -1328 208
WIRE -1072 288 -1152 288
WIRE -1008 288 -1072 288
WIRE -864 288 -912 288
WIRE -864 304 -864 288
WIRE -1072 416 -1152 416
WIRE -1008 416 -1072 416
WIRE -928 496 -928 480
WIRE -896 496 -896 480
WIRE -1072 544 -1152 544
WIRE -1008 544 -1072 544
FLAG -1152 288 L
FLAG -1072 368 0
FLAG -1008 352 0
FLAG -1152 416 E
FLAG -1072 496 0
FLAG -1008 480 0
FLAG -1152 544 G
FLAG -1072 624 0
FLAG -1008 608 0
FLAG -912 288 VDD
FLAG -864 384 0
FLAG -848 480 FE
FLAG -848 560 0
FLAG -928 480 FL
FLAG -928 496 0
FLAG -896 480 FG
FLAG -896 496 0
FLAG -1664 288 A0
FLAG -1664 368 0
FLAG -1424 288 B0
FLAG -1424 368 0
FLAG -1664 416 A1
FLAG -1664 496 0
FLAG -1424 416 B1
FLAG -1424 496 0
FLAG -1664 544 A2
FLAG -1664 624 0
FLAG -1424 544 B2
FLAG -1424 624 0
FLAG -1664 656 A3
FLAG -1664 736 0
FLAG -1424 656 B3
FLAG -1424 736 0
FLAG -1328 16 A0
FLAG -1328 32 A1
FLAG -1328 48 A2
FLAG -1328 64 A3
FLAG -1328 96 B0
FLAG -1328 112 B1
FLAG -1328 128 B2
FLAG -1328 144 B3
FLAG -1328 176 FL
FLAG -1328 192 FE
FLAG -1328 208 FG
FLAG -1120 80 L
FLAG -1120 96 E
FLAG -1120 112 G
FLAG -1232 0 VDD
SYMBOL res -1088 272 R0
SYMATTR InstName R1
SYMATTR Value 100k
SYMBOL cap -1024 288 R0
SYMATTR InstName C1
SYMATTR Value 100f
SYMBOL res -1088 400 R0
SYMATTR InstName R2
SYMATTR Value 100k
SYMBOL cap -1024 416 R0
SYMATTR InstName C2
SYMATTR Value 100f
SYMBOL res -1088 528 R0
SYMATTR InstName R3
SYMATTR Value 100k
SYMBOL cap -1024 544 R0
SYMATTR InstName C3
SYMATTR Value 100f
SYMBOL voltage -864 288 R0
WINDOW 123 0 0 Left 0
WINDOW 39 0 0 Left 0
SYMATTR InstName V1
SYMATTR Value 1
SYMBOL voltage -848 464 R0
WINDOW 123 0 0 Left 0
WINDOW 39 0 0 Left 0
SYMATTR InstName V2
SYMATTR Value 1
SYMBOL voltage -1664 272 R0
WINDOW 123 0 0 Left 0
WINDOW 39 0 0 Left 0
SYMATTR InstName V3
SYMATTR Value PULSE(0 1 1n 10p 10p 2n 4n)
SYMBOL voltage -1424 272 R0
WINDOW 123 0 0 Left 0
WINDOW 39 0 0 Left 0
SYMATTR InstName V4
SYMATTR Value PULSE(0 1 1n 10p 10p 4n 8n)
SYMBOL voltage -1664 400 R0
WINDOW 123 0 0 Left 0
WINDOW 39 0 0 Left 0
SYMATTR InstName V5
SYMATTR Value PULSE(0 1 1n 10p 10p 8n 16n)
SYMBOL voltage -1424 400 R0
WINDOW 123 0 0 Left 0
WINDOW 39 0 0 Left 0
SYMATTR InstName V6
SYMATTR Value PULSE(0 1 1n 10p 10p 16n 32n)
SYMBOL voltage -1664 528 R0
WINDOW 123 0 0 Left 0
WINDOW 39 0 0 Left 0
SYMATTR InstName V7
SYMATTR Value PULSE(0 1 1n 10p 10p 32n 64n)
SYMBOL voltage -1424 528 R0
WINDOW 123 0 0 Left 0
WINDOW 39 0 0 Left 0
SYMATTR InstName V8
SYMATTR Value PULSE(0 1 1n 10p 10p 64n 128n)
SYMBOL voltage -1664 640 R0
WINDOW 123 0 0 Left 0
WINDOW 39 0 0 Left 0
SYMATTR InstName V9
SYMATTR Value PULSE(0 1 1n 10p 10p 128n 256n)
SYMBOL voltage -1424 640 R0
WINDOW 123 0 0 Left 0
WINDOW 39 0 0 Left 0
SYMATTR InstName V10
SYMATTR Value PULSE(0 1 1n 10p 10p 256n 512n)
SYMBOL full-comparator4 -1232 96 R0
SYMATTR InstName X1
TEXT -1152 656 Left 2 !.tran 0 2048n 0 32p
TEXT -1152 696 Left 2 !.include 90nm_bulk.txt
TEXT -1152 656 Left 2 ;.tran 0 2048n 0 32p
TEXT -1152 696 Left 2 !.include 90nm_bulk.txt
