Version 4
SHEET 1 880 1004
WIRE 480 -176 480 -192
WIRE 432 -128 432 -144
WIRE 432 -128 336 -128
WIRE 720 -128 560 -128
WIRE 432 -112 432 -128
WIRE 256 -80 256 -112
WIRE 208 -48 64 -48
WIRE 336 -32 336 -128
WIRE 208 -16 -112 -16
WIRE 480 -16 480 -48
WIRE 608 -16 608 -48
WIRE 336 16 336 -32
WIRE 432 16 336 16
WIRE 560 32 560 16
WIRE 720 32 688 32
WIRE 432 48 336 48
WIRE 560 48 560 32
WIRE 256 64 256 32
WIRE 208 96 -160 96
WIRE 336 112 336 48
WIRE 208 128 96 128
WIRE 480 144 480 128
WIRE -16 176 -16 144
WIRE 336 192 336 112
WIRE 432 192 432 176
WIRE 432 192 336 192
WIRE 720 192 560 192
WIRE 432 208 432 192
WIRE -160 224 -160 96
WIRE -160 224 -256 224
WIRE -64 224 -64 208
WIRE -64 224 -160 224
WIRE 64 224 64 -48
WIRE -64 240 -64 224
WIRE -16 336 -16 304
WIRE -112 384 -112 -16
WIRE -112 384 -256 384
WIRE -64 384 -64 368
WIRE -64 384 -112 384
WIRE 96 384 96 128
WIRE 96 384 64 384
WIRE -64 400 -64 384
WIRE 448 512 368 512
WIRE 512 512 448 512
WIRE 48 528 -16 528
WIRE 48 544 48 528
WIRE 448 640 368 640
WIRE 512 640 448 640
WIRE 48 672 -16 672
WIRE 48 704 48 672
WIRE 448 768 368 768
WIRE 512 768 448 768
WIRE 48 896 0 896
WIRE 48 912 48 896
FLAG -256 384 B
FLAG -256 224 A
FLAG 720 32 E
FLAG -16 304 VDD
FLAG -16 144 VDD
FLAG 256 -112 VDD
FLAG 256 32 VDD
FLAG 480 -48 VDD
FLAG 720 192 G
FLAG 720 -128 L
FLAG -16 528 A
FLAG 48 624 0
FLAG -16 672 B
FLAG 48 784 0
FLAG 368 512 L
FLAG 448 592 0
FLAG 512 576 0
FLAG 368 640 E
FLAG 448 720 0
FLAG 512 704 0
FLAG 368 768 G
FLAG 448 848 0
FLAG 512 832 0
FLAG 480 128 VDD
FLAG 480 -192 VDD
FLAG 0 896 VDD
FLAG 48 992 0
FLAG 608 -48 VDD
SYMBOL nand -16 384 R0
SYMATTR InstName X1
SYMBOL nand -16 224 R0
SYMATTR InstName X2
SYMBOL nand 256 112 R0
SYMATTR InstName X3
SYMBOL nand 256 -32 R0
SYMATTR InstName X4
SYMBOL nand 480 32 R0
SYMATTR InstName X5
SYMBOL nand 480 -128 R0
SYMATTR InstName X6
SYMBOL nand 480 192 R0
SYMATTR InstName X7
SYMBOL voltage 48 528 R0
WINDOW 123 0 0 Left 0
WINDOW 39 0 0 Left 0
SYMATTR InstName V1
SYMATTR Value PULSE(0 1 1n 10p 10p 2n 4n)
SYMBOL voltage 48 688 R0
WINDOW 123 0 0 Left 0
WINDOW 39 0 0 Left 0
SYMATTR InstName V2
SYMATTR Value PULSE(0 1 1n 10p 10p 4n 8n)
SYMBOL res 432 496 R0
SYMATTR InstName R1
SYMATTR Value 100k
SYMBOL cap 496 512 R0
SYMATTR InstName C1
SYMATTR Value 100f
SYMBOL res 432 624 R0
SYMATTR InstName R2
SYMATTR Value 100k
SYMBOL cap 496 640 R0
SYMATTR InstName C2
SYMATTR Value 100f
SYMBOL res 432 752 R0
SYMATTR InstName R3
SYMATTR Value 100k
SYMBOL cap 496 768 R0
SYMATTR InstName C3
SYMATTR Value 100f
SYMBOL voltage 48 896 R0
WINDOW 123 0 0 Left 0
WINDOW 39 0 0 Left 0
SYMATTR InstName V3
SYMATTR Value 1
SYMBOL nand 608 32 R0
SYMATTR InstName X8
TEXT -408 -80 Left 2 !.tran 0 16n 0 1p
TEXT -408 -40 Left 2 !.include 90nm_bulk.txt
