Version 4
SHEET 1 880 680
WIRE 384 80 368 80
WIRE 368 96 368 80
WIRE 368 96 192 96
WIRE 320 112 192 112
WIRE 384 112 336 112
WIRE 384 144 304 144
WIRE 384 176 272 176
WIRE 320 224 320 112
WIRE 384 224 320 224
WIRE 336 240 336 112
WIRE 336 240 192 240
WIRE 320 256 192 256
WIRE 336 256 336 240
WIRE 384 256 336 256
WIRE 304 288 304 144
WIRE 384 288 304 288
WIRE 272 320 272 176
WIRE 384 320 272 320
WIRE 304 384 304 288
WIRE 304 384 192 384
WIRE 320 384 320 256
WIRE 384 384 320 384
WIRE 288 400 192 400
WIRE 304 416 304 384
WIRE 384 416 304 416
WIRE 272 448 272 320
WIRE 384 448 272 448
WIRE 288 512 288 400
WIRE 384 512 288 512
WIRE 272 528 272 448
WIRE 272 528 192 528
WIRE 384 544 192 544
SYMBOL full-comparator1 160 96 R0
SYMATTR InstName X1
SYMBOL full-comparator1 160 240 R0
SYMATTR InstName X2
SYMBOL full-comparator1 160 528 R0
SYMATTR InstName X3
SYMBOL full-comparator1 160 384 R0
SYMATTR InstName X4
SYMBOL and4 416 128 R0
SYMATTR InstName X5
SYMBOL and4 416 272 R0
SYMATTR InstName X6
SYMBOL and3 416 416 R0
SYMATTR InstName X7
SYMBOL and 416 528 R0
SYMATTR InstName X8
