Version 4
SHEET 1 880 680
WIRE 224 -192 128 -192
WIRE 448 -192 416 -192
WIRE 416 -176 416 -192
WIRE 416 -176 304 -176
WIRE 656 -176 512 -176
WIRE 224 -160 176 -160
WIRE 448 -160 352 -160
WIRE 224 -112 160 -112
WIRE -192 -96 -240 -96
WIRE 128 -96 128 -192
WIRE 128 -96 -128 -96
WIRE 656 -96 304 -96
WIRE 160 -80 160 -112
WIRE 160 -80 -128 -80
WIRE 176 -80 176 -160
WIRE 224 -80 176 -80
WIRE -192 -64 -240 -64
WIRE 128 -64 -128 -64
WIRE 128 -32 128 -64
WIRE 224 -32 128 -32
WIRE 448 -32 416 -32
WIRE 416 -16 416 -32
WIRE 416 -16 304 -16
WIRE 656 -16 512 -16
WIRE 176 0 176 -80
WIRE 224 0 176 0
WIRE 448 0 368 0
WIRE 352 32 352 -160
WIRE 352 32 -192 32
WIRE -192 96 -192 32
WIRE -192 96 -240 96
WIRE -144 96 -144 80
WIRE -144 96 -192 96
WIRE -144 112 -144 96
WIRE -16 128 -16 96
WIRE 32 128 -16 128
WIRE 32 160 -240 160
WIRE 176 160 176 0
WIRE 176 160 128 160
WIRE 32 192 -16 192
WIRE -192 224 -240 224
WIRE -144 224 -144 208
WIRE -144 224 -192 224
WIRE -16 224 -16 192
WIRE -144 240 -144 224
WIRE -192 288 -192 224
WIRE 368 288 368 0
WIRE 368 288 -192 288
FLAG -240 -96 A
IOPIN -240 -96 In
FLAG -240 -64 B
IOPIN -240 -64 In
FLAG -160 -112 VDD
FLAG -240 96 FL
IOPIN -240 96 In
FLAG -240 160 FE
IOPIN -240 160 In
FLAG -240 224 FG
IOPIN -240 224 In
FLAG 656 -176 L
IOPIN 656 -176 Out
FLAG 656 -96 E
IOPIN 656 -96 Out
FLAG 656 -16 G
IOPIN 656 -16 Out
FLAG 64 112 VDD
FLAG -96 48 VDD
FLAG -96 176 VDD
FLAG 256 -208 VDD
FLAG 256 -128 VDD
FLAG 256 -48 VDD
FLAG 448 -208 VDD
FLAG 448 -48 VDD
SYMBOL full-comparator1 -160 -80 R0
SYMATTR InstName X1
SYMBOL nand -96 96 R0
SYMATTR InstName X2
SYMBOL nand -96 224 R0
SYMATTR InstName X3
SYMBOL and3 64 160 R0
SYMATTR InstName X4
SYMBOL and 256 -176 R0
SYMATTR InstName X5
SYMBOL and 256 -96 R0
SYMATTR InstName X6
SYMBOL and 256 -16 R0
SYMATTR InstName X7
SYMBOL or 464 -176 R0
SYMATTR InstName X8
SYMBOL or 464 -16 R0
SYMATTR InstName X9
