Version 4
SHEET 1 1892 1292
WIRE 112 448 96 448
WIRE 112 464 96 464
WIRE 240 464 176 464
WIRE 112 480 64 480
WIRE 240 480 176 480
WIRE 112 496 80 496
WIRE 240 496 176 496
WIRE 112 512 96 512
WIRE -16 528 -32 528
WIRE -16 544 -32 544
WIRE 64 544 64 480
WIRE 64 544 48 544
WIRE -16 560 -64 560
WIRE 80 560 80 496
WIRE 80 560 48 560
WIRE -16 576 -48 576
WIRE 96 576 96 512
WIRE 96 576 48 576
WIRE -16 592 -32 592
WIRE -144 608 -160 608
WIRE -144 624 -160 624
WIRE -64 624 -64 560
WIRE -64 624 -80 624
WIRE -144 640 -192 640
WIRE -48 640 -48 576
WIRE -48 640 -80 640
WIRE -144 656 -176 656
WIRE -32 656 -32 592
WIRE -32 656 -80 656
WIRE -144 672 -160 672
WIRE -272 688 -320 688
WIRE -272 704 -320 704
WIRE -192 704 -192 640
WIRE -192 704 -208 704
WIRE -272 720 -320 720
WIRE -176 720 -176 656
WIRE -176 720 -208 720
WIRE -272 736 -320 736
WIRE -160 736 -160 672
WIRE -160 736 -208 736
WIRE -272 752 -320 752
FLAG -320 688 A0
IOPIN -320 688 In
FLAG -320 704 B0
IOPIN -320 704 In
FLAG -320 720 FL
IOPIN -320 720 In
FLAG -320 736 FE
IOPIN -320 736 In
FLAG -320 752 FG
IOPIN -320 752 In
FLAG -240 672 VDD
FLAG -112 592 VDD
FLAG 16 512 VDD
FLAG 144 432 VDD
FLAG 240 464 L
IOPIN 240 464 Out
FLAG 240 480 E
IOPIN 240 480 Out
FLAG 240 496 G
IOPIN 240 496 Out
FLAG -160 608 A1
IOPIN -160 608 In
FLAG -160 624 B1
IOPIN -160 624 In
FLAG -32 528 A2
IOPIN -32 528 In
FLAG -32 544 B2
IOPIN -32 544 In
FLAG 96 448 A3
IOPIN 96 448 In
FLAG 96 464 B3
IOPIN 96 464 In
SYMBOL full-comparator-sequential 144 480 R0
SYMATTR InstName X1
SYMBOL full-comparator-sequential 16 560 R0
SYMATTR InstName X2
SYMBOL full-comparator-sequential -112 640 R0
SYMATTR InstName X3
SYMBOL full-comparator-sequential -240 720 R0
SYMATTR InstName X4
