Version 4
SHEET 1 996 680
WIRE 288 64 288 48
WIRE 256 80 224 80
WIRE 256 96 224 96
WIRE 352 96 320 96
WIRE 256 112 208 112
WIRE 352 112 320 112
WIRE 160 128 160 112
WIRE 256 128 224 128
WIRE 352 128 320 128
WIRE 592 128 560 128
WIRE 656 128 592 128
WIRE 752 128 720 128
WIRE 816 128 752 128
WIRE 896 128 864 128
WIRE 960 128 896 128
WIRE 128 144 96 144
WIRE 256 144 240 144
WIRE 128 160 96 160
WIRE 208 160 208 112
WIRE 208 160 192 160
WIRE 128 176 96 176
WIRE 224 176 224 128
WIRE 224 176 192 176
WIRE 128 192 96 192
WIRE 240 192 240 144
WIRE 240 192 192 192
WIRE 128 208 96 208
WIRE 48 448 48 432
WIRE 96 448 96 432
FLAG 96 144 A0
FLAG 96 160 B0
FLAG 96 176 FL
FLAG 96 192 FE
FLAG 96 208 FG
FLAG 160 112 VDD
FLAG 288 48 VDD
FLAG 224 80 A1
FLAG 224 96 B1
FLAG 352 96 L
FLAG 352 112 E
FLAG 352 128 G
FLAG 80 304 VDD
FLAG 80 384 0
FLAG 240 304 A0
FLAG 240 384 0
FLAG 448 304 B0
FLAG 448 384 0
FLAG 240 432 A1
FLAG 240 512 0
FLAG 448 432 B1
FLAG 448 512 0
FLAG 48 432 FL
FLAG 48 448 0
FLAG 96 432 FG
FLAG 96 448 0
FLAG 48 480 FE
FLAG 48 560 0
FLAG 560 128 L
FLAG 592 208 0
FLAG 656 192 0
FLAG 720 128 E
FLAG 752 208 0
FLAG 816 192 0
FLAG 864 128 G
FLAG 896 208 0
FLAG 960 192 0
SYMBOL full-comparator-sequential 160 176 R0
SYMATTR InstName X1
SYMBOL full-comparator-sequential 288 112 R0
SYMATTR InstName X2
SYMBOL voltage 80 288 R0
WINDOW 123 0 0 Left 0
WINDOW 39 0 0 Left 0
SYMATTR InstName V1
SYMATTR Value 1
SYMBOL voltage 240 288 R0
WINDOW 123 0 0 Left 0
WINDOW 39 0 0 Left 0
SYMATTR InstName V2
SYMATTR Value PULSE(0 1 1n 10p 10p 2n 4n)
SYMBOL voltage 448 288 R0
WINDOW 123 0 0 Left 0
WINDOW 39 0 0 Left 0
SYMATTR InstName V3
SYMATTR Value PULSE(0 1 1n 10p 10p 4n 8n)
SYMBOL voltage 240 416 R0
WINDOW 123 0 0 Left 0
WINDOW 39 0 0 Left 0
SYMATTR InstName V4
SYMATTR Value PULSE(0 1 1n 10p 10p 8n 16n)
SYMBOL voltage 448 416 R0
WINDOW 123 0 0 Left 0
WINDOW 39 0 0 Left 0
SYMATTR InstName V5
SYMATTR Value PULSE(0 1 1n 10p 10p 16n 32n)
SYMBOL voltage 48 464 R0
WINDOW 123 0 0 Left 0
WINDOW 39 0 0 Left 0
SYMATTR InstName V6
SYMATTR Value 1
SYMBOL res 576 112 R0
SYMATTR InstName R1
SYMATTR Value 100k
SYMBOL cap 640 128 R0
SYMATTR InstName C1
SYMATTR Value 100f
SYMBOL res 736 112 R0
SYMATTR InstName R2
SYMATTR Value 100k
SYMBOL cap 800 128 R0
SYMATTR InstName C2
SYMATTR Value 100f
SYMBOL res 880 112 R0
SYMATTR InstName R3
SYMATTR Value 100k
SYMBOL cap 944 128 R0
SYMATTR InstName C3
SYMATTR Value 100f
TEXT 696 304 Left 2 !.include 90nm_bulk.txt
TEXT 696 320 Left 2 !.tran 0 32n 0 1p
