Version 4
SHEET 1 1076 1000
WIRE 16 560 -16 560
WIRE 16 576 -16 576
WIRE 112 576 80 576
WIRE 16 592 -16 592
WIRE 112 592 80 592
WIRE 16 608 -16 608
WIRE 112 608 80 608
WIRE 16 624 -16 624
WIRE -128 688 -160 688
WIRE -64 688 -128 688
WIRE 32 688 0 688
WIRE 96 688 32 688
WIRE 208 688 176 688
WIRE 272 688 208 688
WIRE -128 848 -128 832
WIRE -96 848 -96 832
FLAG -384 656 A
FLAG -384 736 0
FLAG -384 768 B
FLAG -384 848 0
FLAG -128 832 FL
FLAG -128 848 0
FLAG -96 832 FG
FLAG -96 848 0
FLAG -48 832 FE
FLAG -48 912 0
FLAG -160 688 L
FLAG -128 768 0
FLAG -64 752 0
FLAG 0 688 E
FLAG 32 768 0
FLAG 96 752 0
FLAG 176 688 G
FLAG 208 768 0
FLAG 272 752 0
FLAG 48 544 VDD
FLAG -16 560 A
FLAG -16 576 B
FLAG -16 592 FL
FLAG -16 608 FE
FLAG -16 624 FG
FLAG 112 576 L
FLAG 112 592 E
FLAG 112 608 G
FLAG 48 832 VDD
FLAG 48 912 0
SYMBOL voltage -384 640 R0
WINDOW 123 0 0 Left 0
WINDOW 39 0 0 Left 0
SYMATTR InstName V1
SYMATTR Value PULSE(0 1 1n 10p 10p 2n 4n)
SYMBOL voltage -384 752 R0
WINDOW 123 0 0 Left 0
WINDOW 39 0 0 Left 0
SYMATTR InstName V2
SYMATTR Value PULSE(0 1 1n 10p 10p 4n 8n)
SYMBOL voltage -48 816 R0
WINDOW 123 0 0 Left 0
WINDOW 39 0 0 Left 0
SYMATTR InstName V3
SYMATTR Value 1
SYMBOL res -144 672 R0
SYMATTR InstName R1
SYMATTR Value 100k
SYMBOL cap -80 688 R0
SYMATTR InstName C1
SYMATTR Value 100f
SYMBOL res 16 672 R0
SYMATTR InstName R2
SYMATTR Value 100k
SYMBOL cap 80 688 R0
SYMATTR InstName C2
SYMATTR Value 100f
SYMBOL res 192 672 R0
SYMATTR InstName R3
SYMATTR Value 100k
SYMBOL cap 256 688 R0
SYMATTR InstName C3
SYMATTR Value 100f
SYMBOL full-comparator-sequential 48 592 R0
SYMATTR InstName X1
SYMBOL voltage 48 816 R0
WINDOW 123 0 0 Left 0
WINDOW 39 0 0 Left 0
SYMATTR InstName V4
SYMATTR Value 1
TEXT 120 824 Left 2 !.tran 0 16n 0 1p
TEXT 120 856 Left 2 !.include 90nm_bulk.txt
