Version 4
SHEET 1 880 680
WIRE 80 112 80 96
WIRE 80 112 32 112
WIRE 80 128 80 112
WIRE 208 144 208 112
WIRE 384 160 336 160
WIRE 80 224 80 208
WIRE 80 224 32 224
WIRE 208 224 208 176
WIRE 80 240 80 224
FLAG 32 112 A
IOPIN 32 112 In
FLAG 32 224 B
IOPIN 32 224 In
FLAG 384 160 Y
IOPIN 384 160 Out
FLAG 128 64 VDD
FLAG 128 176 VDD
FLAG 256 112 VDD
SYMBOL nand 128 224 R0
SYMATTR InstName X1
SYMBOL nand 128 112 R0
SYMATTR InstName X2
SYMBOL nand 256 160 R0
SYMATTR InstName X3
