Version 4
SHEET 1 880 680
WIRE 48 144 48 128
WIRE 48 144 -32 144
WIRE 176 144 176 128
WIRE 304 144 304 128
WIRE 48 160 48 144
WIRE 176 160 176 144
WIRE 304 160 304 144
WIRE 256 272 256 240
FLAG 432 144 out
FLAG -32 144 in
FLAG 0 272 in
FLAG 0 352 0
FLAG 480 272 VDD
FLAG 480 352 0
FLAG 96 96 VDD
FLAG 224 96 VDD
FLAG 352 96 VDD
FLAG 256 272 0
FLAG 256 240 out
SYMBOL nand 96 144 R0
SYMATTR InstName X1
SYMBOL nand 224 144 R0
SYMATTR InstName X2
SYMBOL nand 352 144 R0
SYMATTR InstName X3
SYMBOL voltage 0 256 R0
WINDOW 123 0 0 Left 0
WINDOW 39 0 0 Left 0
SYMATTR InstName V1
SYMATTR Value PULSE(0 1 0 10p 10p 2n 4n)
SYMBOL voltage 480 256 R0
WINDOW 123 0 0 Left 0
WINDOW 39 0 0 Left 0
SYMATTR InstName V2
SYMATTR Value 1
TEXT 80 392 Left 2 !.include 90nm_bulk.txt
TEXT 264 384 Left 2 !.tran 0 16n 0 1p
