Version 4
SHEET 1 880 680
WIRE 224 128 224 32
WIRE 176 160 48 160
WIRE 480 176 304 176
WIRE 560 176 480 176
WIRE 176 192 48 192
WIRE 128 304 48 304
WIRE 128 320 128 304
WIRE 656 352 656 304
WIRE 128 480 48 480
WIRE 128 496 128 480
FLAG 48 160 A
FLAG 48 192 B
FLAG 48 304 A
FLAG 48 480 B
FLAG 224 32 VDD
FLAG 656 304 VDD
FLAG 656 432 0
FLAG 128 400 0
FLAG 128 576 0
FLAG 560 240 0
FLAG 480 256 0
SYMBOL nand 224 176 R0
SYMATTR InstName X1
SYMBOL voltage 128 304 R0
WINDOW 123 0 0 Left 0
WINDOW 39 0 0 Left 0
SYMATTR InstName V1
SYMATTR Value PULSE(0 1 1n 10p 10p 2n 4n)
SYMBOL voltage 128 480 R0
WINDOW 123 0 0 Left 0
WINDOW 39 0 0 Left 0
SYMATTR InstName V2
SYMATTR Value PULSE(0 1 1n 10p 10p 4n 8n)
SYMBOL voltage 656 336 R0
WINDOW 123 0 0 Left 0
WINDOW 39 0 0 Left 0
SYMATTR InstName V3
SYMATTR Value 1
SYMBOL cap 544 176 R0
SYMATTR InstName C1
SYMATTR Value 0f
SYMBOL res 464 160 R0
SYMATTR InstName R1
SYMATTR Value 100k
TEXT 528 -40 Left 2 !.include 90nm_bulk.txt
TEXT 528 24 Left 2 !.tran 0 16n 0 1p
