Version 4
SHEET 1 880 860
WIRE 384 16 368 16
WIRE 384 32 368 32
WIRE 512 32 448 32
WIRE 384 48 336 48
WIRE 512 48 448 48
WIRE 384 64 352 64
WIRE 512 64 448 64
WIRE 384 80 368 80
WIRE 256 96 240 96
WIRE 256 112 240 112
WIRE 336 112 336 48
WIRE 336 112 320 112
WIRE 256 128 208 128
WIRE 352 128 352 64
WIRE 352 128 320 128
WIRE 256 144 224 144
WIRE 368 144 368 80
WIRE 368 144 320 144
WIRE 256 160 240 160
WIRE 128 176 112 176
WIRE 128 192 112 192
WIRE 208 192 208 128
WIRE 208 192 192 192
WIRE 128 208 80 208
WIRE 224 208 224 144
WIRE 224 208 192 208
WIRE 128 224 96 224
WIRE 240 224 240 160
WIRE 240 224 192 224
WIRE 128 240 112 240
WIRE 0 256 -48 256
WIRE 0 272 -48 272
WIRE 80 272 80 208
WIRE 80 272 64 272
WIRE 0 288 -48 288
WIRE 96 288 96 224
WIRE 96 288 64 288
WIRE 0 304 -48 304
WIRE 112 304 112 240
WIRE 112 304 64 304
WIRE 0 320 -48 320
WIRE 448 400 368 400
WIRE 656 400 608 400
WIRE 656 416 656 400
WIRE 448 528 368 528
WIRE 512 528 448 528
WIRE 592 608 592 592
WIRE 624 608 624 592
WIRE 448 656 368 656
WIRE 512 656 448 656
FLAG -48 256 A0
IOPIN -48 256 In
FLAG -48 272 B0
IOPIN -48 272 In
FLAG -48 288 FL
IOPIN -48 288 In
FLAG -48 304 FE
IOPIN -48 304 In
FLAG -48 320 FG
IOPIN -48 320 In
FLAG 32 240 VDD
FLAG 160 160 VDD
FLAG 288 80 VDD
FLAG 416 0 VDD
FLAG 512 32 L
IOPIN 512 32 Out
FLAG 512 48 E
IOPIN 512 48 Out
FLAG 512 64 G
IOPIN 512 64 Out
FLAG 112 176 A1
IOPIN 112 176 In
FLAG 112 192 B1
IOPIN 112 192 In
FLAG 240 96 A2
IOPIN 240 96 In
FLAG 240 112 B2
IOPIN 240 112 In
FLAG 368 16 A3
IOPIN 368 16 In
FLAG 368 32 B3
IOPIN 368 32 In
FLAG 368 400 L
FLAG 448 480 0
FLAG 368 528 E
FLAG 448 608 0
FLAG 512 592 0
FLAG 368 656 G
FLAG 448 736 0
FLAG 512 720 0
FLAG 608 400 VDD
FLAG 656 496 0
FLAG 672 592 FE
FLAG 672 672 0
FLAG 592 592 FL
FLAG 592 608 0
FLAG 624 592 FG
FLAG 624 608 0
FLAG -144 400 A0
FLAG -144 480 0
FLAG 96 400 B0
FLAG 96 480 0
FLAG -144 528 A1
FLAG -144 608 0
FLAG 96 528 B1
FLAG 96 608 0
FLAG -144 656 A2
FLAG -144 736 0
FLAG 96 656 B2
FLAG 96 736 0
FLAG -144 768 A3
FLAG -144 848 0
FLAG 96 768 B3
FLAG 96 848 0
SYMBOL full-comparator-sequential 416 48 R0
SYMATTR InstName X1
SYMBOL full-comparator-sequential 288 128 R0
SYMATTR InstName X2
SYMBOL full-comparator-sequential 160 208 R0
SYMATTR InstName X3
SYMBOL full-comparator-sequential 32 288 R0
SYMATTR InstName X4
SYMBOL res 432 384 R0
SYMATTR InstName R1
SYMATTR Value 100k
SYMBOL res 432 512 R0
SYMATTR InstName R2
SYMATTR Value 100k
SYMBOL cap 496 528 R0
SYMATTR InstName C2
SYMATTR Value 100f
SYMBOL res 432 640 R0
SYMATTR InstName R3
SYMATTR Value 100k
SYMBOL cap 496 656 R0
SYMATTR InstName C3
SYMATTR Value 100f
SYMBOL voltage 656 400 R0
WINDOW 123 0 0 Left 0
WINDOW 39 0 0 Left 0
SYMATTR InstName V1
SYMATTR Value 1
SYMBOL voltage 672 576 R0
WINDOW 123 0 0 Left 0
WINDOW 39 0 0 Left 0
SYMATTR InstName V2
SYMATTR Value 1
SYMBOL voltage -144 384 R0
WINDOW 123 0 0 Left 0
WINDOW 39 0 0 Left 0
SYMATTR InstName V3
SYMATTR Value PULSE(0 1 1n 10p 10p 2n 4n)
SYMBOL voltage 96 384 R0
WINDOW 123 0 0 Left 0
WINDOW 39 0 0 Left 0
SYMATTR InstName V4
SYMATTR Value PULSE(0 1 1n 10p 10p 4n 8n)
SYMBOL voltage -144 512 R0
WINDOW 123 0 0 Left 0
WINDOW 39 0 0 Left 0
SYMATTR InstName V5
SYMATTR Value PULSE(0 1 1n 10p 10p 8n 16n)
SYMBOL voltage 96 512 R0
WINDOW 123 0 0 Left 0
WINDOW 39 0 0 Left 0
SYMATTR InstName V6
SYMATTR Value PULSE(0 1 1n 10p 10p 16n 32n)
SYMBOL voltage -144 640 R0
WINDOW 123 0 0 Left 0
WINDOW 39 0 0 Left 0
SYMATTR InstName V7
SYMATTR Value PULSE(0 1 1n 10p 10p 32n 64n)
SYMBOL voltage 96 640 R0
WINDOW 123 0 0 Left 0
WINDOW 39 0 0 Left 0
SYMATTR InstName V8
SYMATTR Value PULSE(0 1 1n 10p 10p 64n 128n)
SYMBOL voltage -144 752 R0
WINDOW 123 0 0 Left 0
WINDOW 39 0 0 Left 0
SYMATTR InstName V9
SYMATTR Value PULSE(0 1 1n 10p 10p 128n 256n)
SYMBOL voltage 96 752 R0
WINDOW 123 0 0 Left 0
WINDOW 39 0 0 Left 0
SYMATTR InstName V10
SYMATTR Value PULSE(0 1 1n 10p 10p 256n 512n)
TEXT 368 768 Left 2 !.tran 0 2048n 0 32p
TEXT 368 808 Left 2 !.include 90nm_bulk.txt
TEXT 368 768 Left 2 ;.tran 0 2048n 0 32p
TEXT 368 808 Left 2 !.include 90nm_bulk.txt
