Version 4
SHEET 1 880 680
WIRE 64 64 32 64
WIRE 64 96 32 96
WIRE 192 96 160 96
WIRE 64 128 32 128
WIRE 336 208 304 208
WIRE 384 208 336 208
FLAG -16 288 0
FLAG 192 288 0
FLAG -16 208 A
FLAG 192 208 B
FLAG 304 208 Y
FLAG 336 288 0
FLAG 384 272 0
FLAG 96 336 VDD
FLAG 96 416 0
FLAG 96 48 VDD
FLAG 32 64 A
FLAG 32 96 B
FLAG 32 128 C
FLAG 192 96 Y
FLAG -208 288 0
FLAG -208 208 C
SYMBOL voltage -16 192 R0
WINDOW 123 0 0 Left 0
WINDOW 39 0 0 Left 0
SYMATTR InstName V1
SYMATTR Value PULSE(0 1 1n 10p 10p 2n 4n)
SYMBOL voltage 192 192 R0
WINDOW 123 0 0 Left 0
WINDOW 39 0 0 Left 0
SYMATTR InstName V2
SYMATTR Value PULSE(0 1 1n 10p 10p 4n 8n)
SYMBOL res 320 192 R0
SYMATTR InstName R1
SYMATTR Value 100k
SYMBOL cap 368 208 R0
SYMATTR InstName C1
SYMATTR Value 100f
SYMBOL voltage 96 320 R0
WINDOW 123 0 0 Left 0
WINDOW 39 0 0 Left 0
SYMATTR InstName V3
SYMATTR Value 1
SYMBOL and3 96 96 R0
SYMATTR InstName X1
SYMBOL voltage -208 192 R0
WINDOW 123 0 0 Left 0
WINDOW 39 0 0 Left 0
SYMATTR InstName V4
SYMATTR Value PULSE(0 1 1n 10p 10p 8n 16n)
TEXT 208 328 Left 2 !.include 90nm_bulk.txt
TEXT 208 344 Left 2 !.tran 0 16n 0 1p
